

 ****************************** EPMacro processing begun.


 KRDRD  --> kardi1=   1  KARDI2= 501 KARDX= 502  mTxtP=     0  mStk=     0
      *   1 * !-Generator IDFEditor 1.42
 KRDRD  <-3-  KARDI1=   1  KARDI2=  27  KARDX=   1  KRDNUM=   1 mTxtP =     0  mP=     0  mStk=     0
            .2345678.1.2345678.2.2345678.3.2345678.4.2345678.5.2345678.6.2345678.7.2345678.8.2345678.9.2345678.0
            !-Generator IDFEditor 1.42 
 KRDRD  --> kardi1=   1  KARDI2=  27 KARDX=  28  mTxtP=     0  mStk=     0
      *   2 * !-Option SortedOrder
 KRDRD  <-3-  KARDI1=   1  KARDI2=  21  KARDX=   1  KRDNUM=   2 mTxtP =     0  mP=     0  mStk=     0
            .2345678.1.2345678.2.2345678.3.2345678.4.2345678.5.2345678.6.2345678.7.2345678.8.2345678.9.2345678.0
            !-Option SortedOrder 
 KRDRD  --> kardi1=   1  KARDI2=  21 KARDX=  22  mTxtP=     0  mStk=     0
      *   3 *
 KRDRD  <-3-  KARDI1=   1  KARDI2=   1  KARDX=   1  KRDNUM=   3 mTxtP =     0  mP=     0  mStk=     0
            .2345678.1.2345678.2.2345678.3.2345678.4.2345678.5.2345678.6.2345678.7.2345678.8.2345678.9.2345678.0
             
 KRDRD  --> kardi1=   1  KARDI2=   1 KARDX=   2  mTxtP=     0  mStk=     0
      *   4 * !-NOTE: All comments with '!-' are ignored by the IDFEditor and are generated automatically.
 KRDRD  <-3-  KARDI1=   1  KARDI2=  93  KARDX=   1  KRDNUM=   4 mTxtP =     0  mP=     0  mStk=     0
            .2345678.1.2345678.2.2345678.3.2345678.4.2345678.5.2345678.6.2345678.7.2345678.8.2345678.9.2345678.0
            !-NOTE: All comments with '!-' are ignored by the IDFEditor and are generated automatically. 
 KRDRD  --> kardi1=   1  KARDI2=  93 KARDX=  94  mTxtP=     0  mStk=     0
      *   5 * !-      Use '!' comments if they need to be retained when using the IDFEditor.
 KRDRD  <-3-  KARDI1=   1  KARDI2=  79  KARDX=   1  KRDNUM=   5 mTxtP =     0  mP=     0  mStk=     0
            .2345678.1.2345678.2.2345678.3.2345678.4.2345678.5.2345678.6.2345678.7.2345678.8.2345678.9.2345678.0
            !-      Use '!' comments if they need to be retained when using the IDFEditor. 
 KRDRD  --> kardi1=   1  KARDI2=  79 KARDX=  80  mTxtP=     0  mStk=     0
      *   6 *
 KRDRD  <-3-  KARDI1=   1  KARDI2=   1  KARDX=   1  KRDNUM=   6 mTxtP =     0  mP=     0  mStk=     0
            .2345678.1.2345678.2.2345678.3.2345678.4.2345678.5.2345678.6.2345678.7.2345678.8.2345678.9.2345678.0
             
 KRDRD  --> kardi1=   1  KARDI2=   1 KARDX=   2  mTxtP=     0  mStk=     0
      *   7 *
 KRDRD  <-3-  KARDI1=   1  KARDI2=   1  KARDX=   1  KRDNUM=   7 mTxtP =     0  mP=     0  mStk=     0
            .2345678.1.2345678.2.2345678.3.2345678.4.2345678.5.2345678.6.2345678.7.2345678.8.2345678.9.2345678.0
             
 KRDRD  --> kardi1=   1  KARDI2=   1 KARDX=   2  mTxtP=     0  mStk=     0
      *   8 * !-   ===========  ALL OBJECTS IN CLASS: VERSION ===========
 KRDRD  <-3-  KARDI1=   1  KARDI2=  60  KARDX=   1  KRDNUM=   8 mTxtP =     0  mP=     0  mStk=     0
            .2345678.1.2345678.2.2345678.3.2345678.4.2345678.5.2345678.6.2345678.7.2345678.8.2345678.9.2345678.0
            !-   ===========  ALL OBJECTS IN CLASS: VERSION =========== 
 KRDRD  --> kardi1=   1  KARDI2=  60 KARDX=  61  mTxtP=     0  mStk=     0
      *   9 *
 KRDRD  <-3-  KARDI1=   1  KARDI2=   1  KARDX=   1  KRDNUM=   9 mTxtP =     0  mP=     0  mStk=     0
            .2345678.1.2345678.2.2345678.3.2345678.4.2345678.5.2345678.6.2345678.7.2345678.8.2345678.9.2345678.0
             
 KRDRD  --> kardi1=   1  KARDI2=   1 KARDX=   2  mTxtP=     0  mStk=     0
      *  10 * ! Generated by EPXMLPreproc2 (Windows 32 Version 0.1.2.32)
 KRDRD  <-3-  KARDI1=   1  KARDI2=  59  KARDX=   1  KRDNUM=  10 mTxtP =     0  mP=     0  mStk=     0
            .2345678.1.2345678.2.2345678.3.2345678.4.2345678.5.2345678.6.2345678.7.2345678.8.2345678.9.2345678.0
            ! Generated by EPXMLPreproc2 (Windows 32 Version 0.1.2.32) 
 KRDRD  --> kardi1=   1  KARDI2=  59 KARDX=  60  mTxtP=     0  mStk=     0
      *  11 * ! Created on 2018-11-20 19:50:02
 KRDRD  <-3-  KARDI1=   1  KARDI2=  33  KARDX=   1  KRDNUM=  11 mTxtP =     0  mP=     0  mStk=     0
            .2345678.1.2345678.2.2345678.3.2345678.4.2345678.5.2345678.6.2345678.7.2345678.8.2345678.9.2345678.0
            ! Created on 2018-11-20 19:50:02 
 KRDRD  --> kardi1=   1  KARDI2=  33 KARDX=  34  mTxtP=     0  mStk=     0
      *  12 * !***** This data and software ("Data") is provided by the National Renewable *****
 KRDRD  <-3-  KARDI1=   1  KARDI2=  83  KARDX=   1  KRDNUM=  12 mTxtP =     0  mP=     0  mStk=     0
            .2345678.1.2345678.2.2345678.3.2345678.4.2345678.5.2345678.6.2345678.7.2345678.8.2345678.9.2345678.0
            !***** This data and software ("Data") is provided by the National Renewable ***** 
 KRDRD  --> kardi1=   1  KARDI2=  83 KARDX=  84  mTxtP=     0  mStk=     0
      *  13 * !***** Energy Laboratory ("NREL"), which is operated by the Alliance for *****
 KRDRD  <-3-  KARDI1=   1  KARDI2=  79  KARDX=   1  KRDNUM=  13 mTxtP =     0  mP=     0  mStk=     0
            .2345678.1.2345678.2.2345678.3.2345678.4.2345678.5.2345678.6.2345678.7.2345678.8.2345678.9.2345678.0
            !***** Energy Laboratory ("NREL"), which is operated by the Alliance for ***** 
 KRDRD  --> kardi1=   1  KARDI2=  79 KARDX=  80  mTxtP=     0  mStk=     0
      *  14 * !***** Sustainable Energy, LLC ("ALLIANCE") for the U.S. Department Of *****
 KRDRD  <-3-  KARDI1=   1  KARDI2=  77  KARDX=   1  KRDNUM=  14 mTxtP =     0  mP=     0  mStk=     0
            .2345678.1.2345678.2.2345678.3.2345678.4.2345678.5.2345678.6.2345678.7.2345678.8.2345678.9.2345678.0
            !***** Sustainable Energy, LLC ("ALLIANCE") for the U.S. Department Of ***** 
 KRDRD  --> kardi1=   1  KARDI2=  77 KARDX=  78  mTxtP=     0  mStk=     0
      *  15 * !***** Energy ("DOE"). *****
 KRDRD  <-3-  KARDI1=   1  KARDI2=  29  KARDX=   1  KRDNUM=  15 mTxtP =     0  mP=     0  mStk=     0
            .2345678.1.2345678.2.2345678.3.2345678.4.2345678.5.2345678.6.2345678.7.2345678.8.2345678.9.2345678.0
            !***** Energy ("DOE"). ***** 
 KRDRD  --> kardi1=   1  KARDI2=  29 KARDX=  30  mTxtP=     0  mStk=     0
      *  16 * !***** Access to and use of these Data shall impose the following obligations *****
 KRDRD  <-3-  KARDI1=   1  KARDI2=  84  KARDX=   1  KRDNUM=  16 mTxtP =     0  mP=     0  mStk=     0
            .2345678.1.2345678.2.2345678.3.2345678.4.2345678.5.2345678.6.2345678.7.2345678.8.2345678.9.2345678.0
            !***** Access to and use of these Data shall impose the following obligations ***** 
 KRDRD  --> kardi1=   1  KARDI2=  84 KARDX=  85  mTxtP=     0  mStk=     0
      *  17 * !***** on the user, as set forth in this Agreement.  The user is granted the *****
 KRDRD  <-3-  KARDI1=   1  KARDI2=  83  KARDX=   1  KRDNUM=  17 mTxtP =     0  mP=     0  mStk=     0
            .2345678.1.2345678.2.2345678.3.2345678.4.2345678.5.2345678.6.2345678.7.2345678.8.2345678.9.2345678.0
            !***** on the user, as set forth in this Agreement.  The user is granted the ***** 
 KRDRD  --> kardi1=   1  KARDI2=  83 KARDX=  84  mTxtP=     0  mStk=     0
      *  18 * !***** right, without any fee or cost, to use, copy, modify, alter, enhance *****
 KRDRD  <-3-  KARDI1=   1  KARDI2=  82  KARDX=   1  KRDNUM=  18 mTxtP =     0  mP=     0  mStk=     0
            .2345678.1.2345678.2.2345678.3.2345678.4.2345678.5.2345678.6.2345678.7.2345678.8.2345678.9.2345678.0
            !***** right, without any fee or cost, to use, copy, modify, alter, enhance ***** 
 KRDRD  --> kardi1=   1  KARDI2=  82 KARDX=  83  mTxtP=     0  mStk=     0
      *  19 * !***** and distribute these Data for any purpose whatsoever, provided that this *****
 KRDRD  <-3-  KARDI1=   1  KARDI2=  86  KARDX=   1  KRDNUM=  19 mTxtP =     0  mP=     0  mStk=     0
            .2345678.1.2345678.2.2345678.3.2345678.4.2345678.5.2345678.6.2345678.7.2345678.8.2345678.9.2345678.0
            !***** and distribute these Data for any purpose whatsoever, provided that this ***** 
 KRDRD  --> kardi1=   1  KARDI2=  86 KARDX=  87  mTxtP=     0  mStk=     0
      *  20 * !***** entire notice appears in all copies of the Data.  Further, the user *****
 KRDRD  <-3-  KARDI1=   1  KARDI2=  81  KARDX=   1  KRDNUM=  20 mTxtP =     0  mP=     0  mStk=     0
            .2345678.1.2345678.2.2345678.3.2345678.4.2345678.5.2345678.6.2345678.7.2345678.8.2345678.9.2345678.0
            !***** entire notice appears in all copies of the Data.  Further, the user ***** 
 KRDRD  --> kardi1=   1  KARDI2=  81 KARDX=  82  mTxtP=     0  mStk=     0
      *  21 * !***** agrees to credit DOE/NREL/ALLIANCE in any publication that results from *****
 KRDRD  <-3-  KARDI1=   1  KARDI2=  85  KARDX=   1  KRDNUM=  21 mTxtP =     0  mP=     0  mStk=     0
            .2345678.1.2345678.2.2345678.3.2345678.4.2345678.5.2345678.6.2345678.7.2345678.8.2345678.9.2345678.0
            !***** agrees to credit DOE/NREL/ALLIANCE in any publication that results from ***** 
 KRDRD  --> kardi1=   1  KARDI2=  85 KARDX=  86  mTxtP=     0  mStk=     0
      *  22 * !***** the use of these Data.  The names DOE/NREL/ALLIANCE, however, may not *****
 KRDRD  <-3-  KARDI1=   1  KARDI2=  83  KARDX=   1  KRDNUM=  22 mTxtP =     0  mP=     0  mStk=     0
            .2345678.1.2345678.2.2345678.3.2345678.4.2345678.5.2345678.6.2345678.7.2345678.8.2345678.9.2345678.0
            !***** the use of these Data.  The names DOE/NREL/ALLIANCE, however, may not ***** 
 KRDRD  --> kardi1=   1  KARDI2=  83 KARDX=  84  mTxtP=     0  mStk=     0
      *  23 * !***** be used in any advertising or publicity to endorse or promote any products *****
 KRDRD  <-3-  KARDI1=   1  KARDI2=  88  KARDX=   1  KRDNUM=  23 mTxtP =     0  mP=     0  mStk=     0
            .2345678.1.2345678.2.2345678.3.2345678.4.2345678.5.2345678.6.2345678.7.2345678.8.2345678.9.2345678.0
            !***** be used in any advertising or publicity to endorse or promote any products ***** 
 KRDRD  --> kardi1=   1  KARDI2=  88 KARDX=  89  mTxtP=     0  mStk=     0
      *  24 * !***** or commercial entities unless specific written permission is obtained from *****
 KRDRD  <-3-  KARDI1=   1  KARDI2=  88  KARDX=   1  KRDNUM=  24 mTxtP =     0  mP=     0  mStk=     0
            .2345678.1.2345678.2.2345678.3.2345678.4.2345678.5.2345678.6.2345678.7.2345678.8.2345678.9.2345678.0
            !***** or commercial entities unless specific written permission is obtained from ***** 
 KRDRD  --> kardi1=   1  KARDI2=  88 KARDX=  89  mTxtP=     0  mStk=     0
      *  25 * !***** DOE/NREL/ ALLIANCE.  The user also understands that DOE/NREL/Alliance is *****
 KRDRD  <-3-  KARDI1=   1  KARDI2=  86  KARDX=   1  KRDNUM=  25 mTxtP =     0  mP=     0  mStk=     0
            .2345678.1.2345678.2.2345678.3.2345678.4.2345678.5.2345678.6.2345678.7.2345678.8.2345678.9.2345678.0
            !***** DOE/NREL/ ALLIANCE.  The user also understands that DOE/NREL/Alliance is ***** 
 KRDRD  --> kardi1=   1  KARDI2=  86 KARDX=  87  mTxtP=     0  mStk=     0
      *  26 * !***** not obligated to provide the user with any support, consulting, training *****
 KRDRD  <-3-  KARDI1=   1  KARDI2=  86  KARDX=   1  KRDNUM=  26 mTxtP =     0  mP=     0  mStk=     0
            .2345678.1.2345678.2.2345678.3.2345678.4.2345678.5.2345678.6.2345678.7.2345678.8.2345678.9.2345678.0
            !***** not obligated to provide the user with any support, consulting, training ***** 
 KRDRD  --> kardi1=   1  KARDI2=  86 KARDX=  87  mTxtP=     0  mStk=     0
      *  27 * !***** or assistance of any kind with regard to the use of these Data or to *****
 KRDRD  <-3-  KARDI1=   1  KARDI2=  82  KARDX=   1  KRDNUM=  27 mTxtP =     0  mP=     0  mStk=     0
            .2345678.1.2345678.2.2345678.3.2345678.4.2345678.5.2345678.6.2345678.7.2345678.8.2345678.9.2345678.0
            !***** or assistance of any kind with regard to the use of these Data or to ***** 
 KRDRD  --> kardi1=   1  KARDI2=  82 KARDX=  83  mTxtP=     0  mStk=     0
      *  28 * !***** provide the user with any updates, revisions or new versions of these Data. *****
 KRDRD  <-3-  KARDI1=   1  KARDI2=  89  KARDX=   1  KRDNUM=  28 mTxtP =     0  mP=     0  mStk=     0
            .2345678.1.2345678.2.2345678.3.2345678.4.2345678.5.2345678.6.2345678.7.2345678.8.2345678.9.2345678.0
            !***** provide the user with any updates, revisions or new versions of these Data. ***** 
 KRDRD  --> kardi1=   1  KARDI2=  89 KARDX=  90  mTxtP=     0  mStk=     0
      *  29 * !***** YOU AGREE TO INDEMNIFY DOE/NREL/Alliance, AND ITS SUBSIDIARIES, AFFILIATES, *****
 KRDRD  <-3-  KARDI1=   1  KARDI2=  89  KARDX=   1  KRDNUM=  29 mTxtP =     0  mP=     0  mStk=     0
            .2345678.1.2345678.2.2345678.3.2345678.4.2345678.5.2345678.6.2345678.7.2345678.8.2345678.9.2345678.0
            !***** YOU AGREE TO INDEMNIFY DOE/NREL/Alliance, AND ITS SUBSIDIARIES, AFFILIATES, ***** 
 KRDRD  --> kardi1=   1  KARDI2=  89 KARDX=  90  mTxtP=     0  mStk=     0
      *  30 * !***** OFFICERS, AGENTS, AND EMPLOYEES AGAINST ANY CLAIM OR DEMAND, INCLUDING *****
 KRDRD  <-3-  KARDI1=   1  KARDI2=  84  KARDX=   1  KRDNUM=  30 mTxtP =     0  mP=     0  mStk=     0
            .2345678.1.2345678.2.2345678.3.2345678.4.2345678.5.2345678.6.2345678.7.2345678.8.2345678.9.2345678.0
            !***** OFFICERS, AGENTS, AND EMPLOYEES AGAINST ANY CLAIM OR DEMAND, INCLUDING ***** 
 KRDRD  --> kardi1=   1  KARDI2=  84 KARDX=  85  mTxtP=     0  mStk=     0
      *  31 * !***** 'REASONABLE ATTORNEYS' FEES, RELATED TO YOUR USE OF THESE DATA.  THESE DATA *****
 KRDRD  <-3-  KARDI1=   1  KARDI2=  89  KARDX=   1  KRDNUM=  31 mTxtP =     0  mP=     0  mStk=     0
            .2345678.1.2345678.2.2345678.3.2345678.4.2345678.5.2345678.6.2345678.7.2345678.8.2345678.9.2345678.0
            !***** 'REASONABLE ATTORNEYS' FEES, RELATED TO YOUR USE OF THESE DATA.  THESE DATA ***** 
 KRDRD  --> kardi1=   1  KARDI2=  89 KARDX=  90  mTxtP=     0  mStk=     0
      *  32 * !***** ARE PROVIDED BY DOE/NREL/Alliance "AS IS" AND ANY EXPRESS OR IMPLIED *****
 KRDRD  <-3-  KARDI1=   1  KARDI2=  82  KARDX=   1  KRDNUM=  32 mTxtP =     0  mP=     0  mStk=     0
            .2345678.1.2345678.2.2345678.3.2345678.4.2345678.5.2345678.6.2345678.7.2345678.8.2345678.9.2345678.0
            !***** ARE PROVIDED BY DOE/NREL/Alliance "AS IS" AND ANY EXPRESS OR IMPLIED ***** 
 KRDRD  --> kardi1=   1  KARDI2=  82 KARDX=  83  mTxtP=     0  mStk=     0
      *  33 * !***** WARRANTIES, INCLUDING BUT NOT LIMITED TO, THE IMPLIED WARRANTIES OF *****
 KRDRD  <-3-  KARDI1=   1  KARDI2=  81  KARDX=   1  KRDNUM=  33 mTxtP =     0  mP=     0  mStk=     0
            .2345678.1.2345678.2.2345678.3.2345678.4.2345678.5.2345678.6.2345678.7.2345678.8.2345678.9.2345678.0
            !***** WARRANTIES, INCLUDING BUT NOT LIMITED TO, THE IMPLIED WARRANTIES OF ***** 
 KRDRD  --> kardi1=   1  KARDI2=  81 KARDX=  82  mTxtP=     0  mStk=     0
      *  34 * !***** MERCHANTABILITY AND FITNESS FOR A PARTICULAR PURPOSE ARE DISCLAIMED.  IN *****
 KRDRD  <-3-  KARDI1=   1  KARDI2=  86  KARDX=   1  KRDNUM=  34 mTxtP =     0  mP=     0  mStk=     0
            .2345678.1.2345678.2.2345678.3.2345678.4.2345678.5.2345678.6.2345678.7.2345678.8.2345678.9.2345678.0
            !***** MERCHANTABILITY AND FITNESS FOR A PARTICULAR PURPOSE ARE DISCLAIMED.  IN ***** 
 KRDRD  --> kardi1=   1  KARDI2=  86 KARDX=  87  mTxtP=     0  mStk=     0
      *  35 * !***** NO EVENT SHALL DOE/NREL/ALLIANCE BE LIABLE FOR ANY SPECIAL, INDIRECT OR *****
 KRDRD  <-3-  KARDI1=   1  KARDI2=  85  KARDX=   1  KRDNUM=  35 mTxtP =     0  mP=     0  mStk=     0
            .2345678.1.2345678.2.2345678.3.2345678.4.2345678.5.2345678.6.2345678.7.2345678.8.2345678.9.2345678.0
            !***** NO EVENT SHALL DOE/NREL/ALLIANCE BE LIABLE FOR ANY SPECIAL, INDIRECT OR ***** 
 KRDRD  --> kardi1=   1  KARDI2=  85 KARDX=  86  mTxtP=     0  mStk=     0
      *  36 * !***** CONSEQUENTIAL DAMAGES OR ANY DAMAGES WHATSOEVER, INCLUDING BUT NOT LIMITED *****
 KRDRD  <-3-  KARDI1=   1  KARDI2=  88  KARDX=   1  KRDNUM=  36 mTxtP =     0  mP=     0  mStk=     0
            .2345678.1.2345678.2.2345678.3.2345678.4.2345678.5.2345678.6.2345678.7.2345678.8.2345678.9.2345678.0
            !***** CONSEQUENTIAL DAMAGES OR ANY DAMAGES WHATSOEVER, INCLUDING BUT NOT LIMITED ***** 
 KRDRD  --> kardi1=   1  KARDI2=  88 KARDX=  89  mTxtP=     0  mStk=     0
      *  37 * !***** TO CLAIMS ASSOCIATED WITH THE LOSS OF DATA OR PROFITS, WHICH MAY RESULT *****
 KRDRD  <-3-  KARDI1=   1  KARDI2=  85  KARDX=   1  KRDNUM=  37 mTxtP =     0  mP=     0  mStk=     0
            .2345678.1.2345678.2.2345678.3.2345678.4.2345678.5.2345678.6.2345678.7.2345678.8.2345678.9.2345678.0
            !***** TO CLAIMS ASSOCIATED WITH THE LOSS OF DATA OR PROFITS, WHICH MAY RESULT ***** 
 KRDRD  --> kardi1=   1  KARDI2=  85 KARDX=  86  mTxtP=     0  mStk=     0
      *  38 * !***** FROM AN ACTION IN CONTRACT, NEGLIGENCE OR OTHER TORTIOUS CLAIM THAT *****
 KRDRD  <-3-  KARDI1=   1  KARDI2=  81  KARDX=   1  KRDNUM=  38 mTxtP =     0  mP=     0  mStk=     0
            .2345678.1.2345678.2.2345678.3.2345678.4.2345678.5.2345678.6.2345678.7.2345678.8.2345678.9.2345678.0
            !***** FROM AN ACTION IN CONTRACT, NEGLIGENCE OR OTHER TORTIOUS CLAIM THAT ***** 
 KRDRD  --> kardi1=   1  KARDI2=  81 KARDX=  82  mTxtP=     0  mStk=     0
      *  39 * !***** ARISES OUT OF OR IN CONNECTION WITH THE ACCESS, USE OR PERFORMANCE OF *****
 KRDRD  <-3-  KARDI1=   1  KARDI2=  83  KARDX=   1  KRDNUM=  39 mTxtP =     0  mP=     0  mStk=     0
            .2345678.1.2345678.2.2345678.3.2345678.4.2345678.5.2345678.6.2345678.7.2345678.8.2345678.9.2345678.0
            !***** ARISES OUT OF OR IN CONNECTION WITH THE ACCESS, USE OR PERFORMANCE OF ***** 
 KRDRD  --> kardi1=   1  KARDI2=  83 KARDX=  84  mTxtP=     0  mStk=     0
      *  40 * !***** THESE DATA. *****
 KRDRD  <-3-  KARDI1=   1  KARDI2=  25  KARDX=   1  KRDNUM=  40 mTxtP =     0  mP=     0  mStk=     0
            .2345678.1.2345678.2.2345678.3.2345678.4.2345678.5.2345678.6.2345678.7.2345678.8.2345678.9.2345678.0
            !***** THESE DATA. ***** 
 KRDRD  --> kardi1=   1  KARDI2=  25 KARDX=  26  mTxtP=     0  mStk=     0
      *  41 * ! Building Description
 KRDRD  <-3-  KARDI1=   1  KARDI2=  23  KARDX=   1  KRDNUM=  41 mTxtP =     0  mP=     0  mStk=     0
            .2345678.1.2345678.2.2345678.3.2345678.4.2345678.5.2345678.6.2345678.7.2345678.8.2345678.9.2345678.0
            ! Building Description 
 KRDRD  --> kardi1=   1  KARDI2=  23 KARDX=  24  mTxtP=     0  mStk=     0
      *  42 * ! Coolroof_IDF
 KRDRD  <-3-  KARDI1=   1  KARDI2=  15  KARDX=   1  KRDNUM=  42 mTxtP =     0  mP=     0  mStk=     0
            .2345678.1.2345678.2.2345678.3.2345678.4.2345678.5.2345678.6.2345678.7.2345678.8.2345678.9.2345678.0
            ! Coolroof_IDF 
 KRDRD  --> kardi1=   1  KARDI2=  15 KARDX=  16  mTxtP=     0  mStk=     0
      *  43 * ! Start SimMetaData
 KRDRD  <-3-  KARDI1=   1  KARDI2=  20  KARDX=   1  KRDNUM=  43 mTxtP =     0  mP=     0  mStk=     0
            .2345678.1.2345678.2.2345678.3.2345678.4.2345678.5.2345678.6.2345678.7.2345678.8.2345678.9.2345678.0
            ! Start SimMetaData 
 KRDRD  --> kardi1=   1  KARDI2=  20 KARDX=  21  mTxtP=     0  mStk=     0
      *  44 * ! WeatherFileName=NewDelhi
 KRDRD  <-3-  KARDI1=   1  KARDI2=  27  KARDX=   1  KRDNUM=  44 mTxtP =     0  mP=     0  mStk=     0
            .2345678.1.2345678.2.2345678.3.2345678.4.2345678.5.2345678.6.2345678.7.2345678.8.2345678.9.2345678.0
            ! WeatherFileName=NewDelhi 
 KRDRD  --> kardi1=   1  KARDI2=  27 KARDX=  28  mTxtP=     0  mStk=     0
      *  45 * ! RoofConstruction=Insulation Entirely Above Deck
 KRDRD  <-3-  KARDI1=   1  KARDI2=  50  KARDX=   1  KRDNUM=  45 mTxtP =     0  mP=     0  mStk=     0
            .2345678.1.2345678.2.2345678.3.2345678.4.2345678.5.2345678.6.2345678.7.2345678.8.2345678.9.2345678.0
            ! RoofConstruction=Insulation Entirely Above Deck 
 KRDRD  --> kardi1=   1  KARDI2=  50 KARDX=  51  mTxtP=     0  mStk=     0
      *  46 * ! ExtWallConstruction=Mass
 KRDRD  <-3-  KARDI1=   1  KARDI2=  27  KARDX=   1  KRDNUM=  46 mTxtP =     0  mP=     0  mStk=     0
            .2345678.1.2345678.2.2345678.3.2345678.4.2345678.5.2345678.6.2345678.7.2345678.8.2345678.9.2345678.0
            ! ExtWallConstruction=Mass 
 KRDRD  --> kardi1=   1  KARDI2=  27 KARDX=  28  mTxtP=     0  mStk=     0
      *  47 * ! End SimMetaData
 KRDRD  <-3-  KARDI1=   1  KARDI2=  18  KARDX=   1  KRDNUM=  47 mTxtP =     0  mP=     0  mStk=     0
            .2345678.1.2345678.2.2345678.3.2345678.4.2345678.5.2345678.6.2345678.7.2345678.8.2345678.9.2345678.0
            ! End SimMetaData 
 KRDRD  --> kardi1=   1  KARDI2=  18 KARDX=  19  mTxtP=     0  mStk=     0
      *  48 * ! Start WebInterface Parameters
 KRDRD  <-3-  KARDI1=   1  KARDI2=  32  KARDX=   1  KRDNUM=  48 mTxtP =     0  mP=     0  mStk=     0
            .2345678.1.2345678.2.2345678.3.2345678.4.2345678.5.2345678.6.2345678.7.2345678.8.2345678.9.2345678.0
            ! Start WebInterface Parameters 
 KRDRD  --> kardi1=   1  KARDI2=  32 KARDX=  33  mTxtP=     0  mStk=     0
      *  49 * ! APPENDIX_G_TYPES=3
 KRDRD  <-3-  KARDI1=   1  KARDI2=  21  KARDX=   1  KRDNUM=  49 mTxtP =     0  mP=     0  mStk=     0
            .2345678.1.2345678.2.2345678.3.2345678.4.2345678.5.2345678.6.2345678.7.2345678.8.2345678.9.2345678.0
            ! APPENDIX_G_TYPES=3 
 KRDRD  --> kardi1=   1  KARDI2=  21 KARDX=  22  mTxtP=     0  mStk=     0
      *  50 * ! AVERAGE_INFILTRATION_RATE_INPUT=SmartDefault
 KRDRD  <-3-  KARDI1=   1  KARDI2=  47  KARDX=   1  KRDNUM=  50 mTxtP =     0  mP=     0  mStk=     0
            .2345678.1.2345678.2.2345678.3.2345678.4.2345678.5.2345678.6.2345678.7.2345678.8.2345678.9.2345678.0
            ! AVERAGE_INFILTRATION_RATE_INPUT=SmartDefault 
 KRDRD  --> kardi1=   1  KARDI2=  47 KARDX=  48  mTxtP=     0  mStk=     0
      *  51 * ! BUILDING_DESCRIPTION=Coolroof_IDF
 KRDRD  <-3-  KARDI1=   1  KARDI2=  36  KARDX=   1  KRDNUM=  51 mTxtP =     0  mP=     0  mStk=     0
            .2345678.1.2345678.2.2345678.3.2345678.4.2345678.5.2345678.6.2345678.7.2345678.8.2345678.9.2345678.0
            ! BUILDING_DESCRIPTION=Coolroof_IDF 
 KRDRD  --> kardi1=   1  KARDI2=  36 KARDX=  37  mTxtP=     0  mStk=     0
      *  52 * ! BUILDING_FENESTRATION_INPUT=SmartDefault
 KRDRD  <-3-  KARDI1=   1  KARDI2=  43  KARDX=   1  KRDNUM=  52 mTxtP =     0  mP=     0  mStk=     0
            .2345678.1.2345678.2.2345678.3.2345678.4.2345678.5.2345678.6.2345678.7.2345678.8.2345678.9.2345678.0
            ! BUILDING_FENESTRATION_INPUT=SmartDefault 
 KRDRD  --> kardi1=   1  KARDI2=  43 KARDX=  44  mTxtP=     0  mStk=     0
      *  53 * ! BUILDING_TYPE=Office/Professional
 KRDRD  <-3-  KARDI1=   1  KARDI2=  36  KARDX=   1  KRDNUM=  53 mTxtP =     0  mP=     0  mStk=     0
            .2345678.1.2345678.2.2345678.3.2345678.4.2345678.5.2345678.6.2345678.7.2345678.8.2345678.9.2345678.0
            ! BUILDING_TYPE=Office/Professional 
 KRDRD  --> kardi1=   1  KARDI2=  36 KARDX=  37  mTxtP=     0  mStk=     0
      *  54 * ! CELL_EFFICIENCY=10.0
 KRDRD  <-3-  KARDI1=   1  KARDI2=  23  KARDX=   1  KRDNUM=  54 mTxtP =     0  mP=     0  mStk=     0
            .2345678.1.2345678.2.2345678.3.2345678.4.2345678.5.2345678.6.2345678.7.2345678.8.2345678.9.2345678.0
            ! CELL_EFFICIENCY=10.0 
 KRDRD  --> kardi1=   1  KARDI2=  23 KARDX=  24  mTxtP=     0  mStk=     0
      *  55 * ! CONTROL_TYPE=Stepped
 KRDRD  <-3-  KARDI1=   1  KARDI2=  23  KARDX=   1  KRDNUM=  55 mTxtP =     0  mP=     0  mStk=     0
            .2345678.1.2345678.2.2345678.3.2345678.4.2345678.5.2345678.6.2345678.7.2345678.8.2345678.9.2345678.0
            ! CONTROL_TYPE=Stepped 
 KRDRD  --> kardi1=   1  KARDI2=  23 KARDX=  24  mTxtP=     0  mStk=     0
      *  56 * ! COOLING_COP_INPUT=SmartDefault
 KRDRD  <-3-  KARDI1=   1  KARDI2=  33  KARDX=   1  KRDNUM=  56 mTxtP =     0  mP=     0  mStk=     0
            .2345678.1.2345678.2.2345678.3.2345678.4.2345678.5.2345678.6.2345678.7.2345678.8.2345678.9.2345678.0
            ! COOLING_COP_INPUT=SmartDefault 
 KRDRD  --> kardi1=   1  KARDI2=  33 KARDX=  34  mTxtP=     0  mStk=     0
      *  57 * ! COUNTRY=USA
 KRDRD  <-3-  KARDI1=   1  KARDI2=  14  KARDX=   1  KRDNUM=  57 mTxtP =     0  mP=     0  mStk=     0
            .2345678.1.2345678.2.2345678.3.2345678.4.2345678.5.2345678.6.2345678.7.2345678.8.2345678.9.2345678.0
            ! COUNTRY=USA 
 KRDRD  --> kardi1=   1  KARDI2=  14 KARDX=  15  mTxtP=     0  mStk=     0
      *  58 * ! COVERAGE_SURFACES=Roof Only
 KRDRD  <-3-  KARDI1=   1  KARDI2=  30  KARDX=   1  KRDNUM=  58 mTxtP =     0  mP=     0  mStk=     0
            .2345678.1.2345678.2.2345678.3.2345678.4.2345678.5.2345678.6.2345678.7.2345678.8.2345678.9.2345678.0
            ! COVERAGE_SURFACES=Roof Only 
 KRDRD  --> kardi1=   1  KARDI2=  30 KARDX=  31  mTxtP=     0  mStk=     0
      *  59 * ! DAYLIGHTING_ILLUMINANCE_SETPOINT=398
 KRDRD  <-3-  KARDI1=   1  KARDI2=  39  KARDX=   1  KRDNUM=  59 mTxtP =     0  mP=     0  mStk=     0
            .2345678.1.2345678.2.2345678.3.2345678.4.2345678.5.2345678.6.2345678.7.2345678.8.2345678.9.2345678.0
            ! DAYLIGHTING_ILLUMINANCE_SETPOINT=398 
 KRDRD  --> kardi1=   1  KARDI2=  39 KARDX=  40  mTxtP=     0  mStk=     0
      *  60 * ! ECONOMIZER=0
 KRDRD  <-3-  KARDI1=   1  KARDI2=  15  KARDX=   1  KRDNUM=  60 mTxtP =     0  mP=     0  mStk=     0
            .2345678.1.2345678.2.2345678.3.2345678.4.2345678.5.2345678.6.2345678.7.2345678.8.2345678.9.2345678.0
            ! ECONOMIZER=0 
 KRDRD  --> kardi1=   1  KARDI2=  15 KARDX=  16  mTxtP=     0  mStk=     0
      *  61 * ! ELECTRICAL_PLUG_INTENSITY_INPUT=SmartDefault
 KRDRD  <-3-  KARDI1=   1  KARDI2=  47  KARDX=   1  KRDNUM=  61 mTxtP =     0  mP=     0  mStk=     0
            .2345678.1.2345678.2.2345678.3.2345678.4.2345678.5.2345678.6.2345678.7.2345678.8.2345678.9.2345678.0
            ! ELECTRICAL_PLUG_INTENSITY_INPUT=SmartDefault 
 KRDRD  --> kardi1=   1  KARDI2=  47 KARDX=  48  mTxtP=     0  mStk=     0
      *  62 * ! ENERGYPLUSVERSION=7.1
 KRDRD  <-3-  KARDI1=   1  KARDI2=  24  KARDX=   1  KRDNUM=  62 mTxtP =     0  mP=     0  mStk=     0
            .2345678.1.2345678.2.2345678.3.2345678.4.2345678.5.2345678.6.2345678.7.2345678.8.2345678.9.2345678.0
            ! ENERGYPLUSVERSION=7.1 
 KRDRD  --> kardi1=   1  KARDI2=  24 KARDX=  25  mTxtP=     0  mStk=     0
      *  63 * ! EXTERIOR_LIGHTING_INPUT=SmartDefault
 KRDRD  <-3-  KARDI1=   1  KARDI2=  39  KARDX=   1  KRDNUM=  63 mTxtP =     0  mP=     0  mStk=     0
            .2345678.1.2345678.2.2345678.3.2345678.4.2345678.5.2345678.6.2345678.7.2345678.8.2345678.9.2345678.0
            ! EXTERIOR_LIGHTING_INPUT=SmartDefault 
 KRDRD  --> kardi1=   1  KARDI2=  39 KARDX=  40  mTxtP=     0  mStk=     0
      *  64 * ! FAN_STATIC_PRESSURE_INPUT=SmartDefault
 KRDRD  <-3-  KARDI1=   1  KARDI2=  41  KARDX=   1  KRDNUM=  64 mTxtP =     0  mP=     0  mStk=     0
            .2345678.1.2345678.2.2345678.3.2345678.4.2345678.5.2345678.6.2345678.7.2345678.8.2345678.9.2345678.0
            ! FAN_STATIC_PRESSURE_INPUT=SmartDefault 
 KRDRD  --> kardi1=   1  KARDI2=  41 KARDX=  42  mTxtP=     0  mStk=     0
      *  65 * ! FLOOR_TO_FLOOR_HEIGHT=3.80
 KRDRD  <-3-  KARDI1=   1  KARDI2=  29  KARDX=   1  KRDNUM=  65 mTxtP =     0  mP=     0  mStk=     0
            .2345678.1.2345678.2.2345678.3.2345678.4.2345678.5.2345678.6.2345678.7.2345678.8.2345678.9.2345678.0
            ! FLOOR_TO_FLOOR_HEIGHT=3.80 
 KRDRD  --> kardi1=   1  KARDI2=  29 KARDX=  30  mTxtP=     0  mStk=     0
      *  66 * ! GAS_APPLIANCE_INTENSITY_INPUT=SmartDefault
 KRDRD  <-3-  KARDI1=   1  KARDI2=  45  KARDX=   1  KRDNUM=  66 mTxtP =     0  mP=     0  mStk=     0
            .2345678.1.2345678.2.2345678.3.2345678.4.2345678.5.2345678.6.2345678.7.2345678.8.2345678.9.2345678.0
            ! GAS_APPLIANCE_INTENSITY_INPUT=SmartDefault 
 KRDRD  --> kardi1=   1  KARDI2=  45 KARDX=  46  mTxtP=     0  mStk=     0
      *  67 * ! GEOCHG=false
 KRDRD  <-3-  KARDI1=   1  KARDI2=  15  KARDX=   1  KRDNUM=  67 mTxtP =     0  mP=     0  mStk=     0
            .2345678.1.2345678.2.2345678.3.2345678.4.2345678.5.2345678.6.2345678.7.2345678.8.2345678.9.2345678.0
            ! GEOCHG=false 
 KRDRD  --> kardi1=   1  KARDI2=  15 KARDX=  16  mTxtP=     0  mStk=     0
      *  68 * ! GEOMETRY_CONFIGURATION=1
 KRDRD  <-3-  KARDI1=   1  KARDI2=  27  KARDX=   1  KRDNUM=  68 mTxtP =     0  mP=     0  mStk=     0
            .2345678.1.2345678.2.2345678.3.2345678.4.2345678.5.2345678.6.2345678.7.2345678.8.2345678.9.2345678.0
            ! GEOMETRY_CONFIGURATION=1 
 KRDRD  --> kardi1=   1  KARDI2=  27 KARDX=  28  mTxtP=     0  mStk=     0
      *  69 * ! HEATING_COP_INPUT=SmartDefault
 KRDRD  <-3-  KARDI1=   1  KARDI2=  33  KARDX=   1  KRDNUM=  69 mTxtP =     0  mP=     0  mStk=     0
            .2345678.1.2345678.2.2345678.3.2345678.4.2345678.5.2345678.6.2345678.7.2345678.8.2345678.9.2345678.0
            ! HEATING_COP_INPUT=SmartDefault 
 KRDRD  --> kardi1=   1  KARDI2=  33 KARDX=  34  mTxtP=     0  mStk=     0
      *  70 * ! HEATING_EFFICIENCY_INPUT=SmartDefault
 KRDRD  <-3-  KARDI1=   1  KARDI2=  40  KARDX=   1  KRDNUM=  70 mTxtP =     0  mP=     0  mStk=     0
            .2345678.1.2345678.2.2345678.3.2345678.4.2345678.5.2345678.6.2345678.7.2345678.8.2345678.9.2345678.0
            ! HEATING_EFFICIENCY_INPUT=SmartDefault 
 KRDRD  --> kardi1=   1  KARDI2=  40 KARDX=  41  mTxtP=     0  mStk=     0
      *  71 * ! HVAC_TYPE=1
 KRDRD  <-3-  KARDI1=   1  KARDI2=  14  KARDX=   1  KRDNUM=  71 mTxtP =     0  mP=     0  mStk=     0
            .2345678.1.2345678.2.2345678.3.2345678.4.2345678.5.2345678.6.2345678.7.2345678.8.2345678.9.2345678.0
            ! HVAC_TYPE=1 
 KRDRD  --> kardi1=   1  KARDI2=  14 KARDX=  15  mTxtP=     0  mStk=     0
      *  72 * ! IDF_UPLOAD=0