

 ****************************** EPMacro processing begun.


      *   1 * !-Generator IDFEditor 1.42
      *   2 * !-Option SortedOrder
      *   3 *
      *   4 * !-NOTE: All comments with '!-' are ignored by the IDFEditor and are generated automatically.
      *   5 * !-      Use '!' comments if they need to be retained when using the IDFEditor.
      *   6 *
      *   7 *
      *   8 * !-   ===========  ALL OBJECTS IN CLASS: VERSION ===========
      *   9 *
      *  10 * ! Generated by EPXMLPreproc2 (Windows 32 Version 0.1.2.32)
      *  11 * ! Created on 2025-03-12 11:23:40
      *  12 * !***** This data and software ("Data") is provided by the National Renewable *****
      *  13 * !***** Energy Laboratory ("NREL"), which is operated by the Alliance for *****
      *  14 * !***** Sustainable Energy, LLC ("ALLIANCE") for the U.S. Department Of *****
      *  15 * !***** Energy ("DOE"). *****
      *  16 * !***** Access to and use of these Data shall impose the following obligations *****
      *  17 * !***** on the user, as set forth in this Agreement.  The user is granted the *****
      *  18 * !***** right, without any fee or cost, to use, copy, modify, alter, enhance *****
      *  19 * !***** and distribute these Data for any purpose whatsoever, provided that this *****
      *  20 * !***** entire notice appears in all copies of the Data.  Further, the user *****
      *  21 * !***** agrees to credit DOE/NREL/ALLIANCE in any publication that results from *****
      *  22 * !***** the use of these Data.  The names DOE/NREL/ALLIANCE, however, may not *****
      *  23 * !***** be used in any advertising or publicity to endorse or promote any products *****
      *  24 * !***** or commercial entities unless specific written permission is obtained from *****
      *  25 * !***** DOE/NREL/ ALLIANCE.  The user also understands that DOE/NREL/Alliance is *****
      *  26 * !***** not obligated to provide the user with any support, consulting, training *****
      *  27 * !***** or assistance of any kind with regard to the use of these Data or to *****
      *  28 * !***** provide the user with any updates, revisions or new versions of these Data. *****
      *  29 * !***** YOU AGREE TO INDEMNIFY DOE/NREL/Alliance, AND ITS SUBSIDIARIES, AFFILIATES, *****
      *  30 * !***** OFFICERS, AGENTS, AND EMPLOYEES AGAINST ANY CLAIM OR DEMAND, INCLUDING *****
      *  31 * !***** 'REASONABLE ATTORNEYS' FEES, RELATED TO YOUR USE OF THESE DATA.  THESE DATA *****
      *  32 * !***** ARE PROVIDED BY DOE/NREL/Alliance "AS IS" AND ANY EXPRESS OR IMPLIED *****
      *  33 * !***** WARRANTIES, INCLUDING BUT NOT LIMITED TO, THE IMPLIED WARRANTIES OF *****
      *  34 * !***** MERCHANTABILITY AND FITNESS FOR A PARTICULAR PURPOSE ARE DISCLAIMED.  IN *****
      *  35 * !***** NO EVENT SHALL DOE/NREL/ALLIANCE BE LIABLE FOR ANY SPECIAL, INDIRECT OR *****
      *  36 * !***** CONSEQUENTIAL DAMAGES OR ANY DAMAGES WHATSOEVER, INCLUDING BUT NOT LIMITED *****
      *  37 * !***** TO CLAIMS ASSOCIATED WITH THE LOSS OF DATA OR PROFITS, WHICH MAY RESULT *****
      *  38 * !***** FROM AN ACTION IN CONTRACT, NEGLIGENCE OR OTHER TORTIOUS CLAIM THAT *****
      *  39 * !***** ARISES OUT OF OR IN CONNECTION WITH THE ACCESS, USE OR PERFORMANCE OF *****
      *  40 * !***** THESE DATA. *****
      *  41 * ! Building Description
      *  42 * ! Coolroof_IDF
      *  43 * ! Start SimMetaData
      *  44 * ! WeatherFileName=Indore
      *  45 * ! RoofConstruction=Insulation Entirely Above Deck
      *  46 * ! ExtWallConstruction=Mass
      *  47 * ! End SimMetaData
      *  48 * ! Start WebInterface Parameters
      *  49 * ! APPENDIX_G_TYPES=3
      *  50 * ! AVERAGE_INFILTRATION_RATE_INPUT=SmartDefault
      *  51 * ! BUILDING_DESCRIPTION=Coolroof_IDF
      *  52 * ! BUILDING_FENESTRATION_INPUT=SmartDefault
      *  53 * ! BUILDING_TYPE=Office/Professional
      *  54 * ! CELL_EFFICIENCY=10.0
      *  55 * ! CONTROL_TYPE=Stepped
      *  56 * ! COOLING_COP_INPUT=SmartDefault
      *  57 * ! COUNTRY=USA
      *  58 * ! COVERAGE_SURFACES=Roof Only
      *  59 * ! DAYLIGHTING_ILLUMINANCE_SETPOINT=398
      *  60 * ! ECONOMIZER=0
      *  61 * ! ELECTRICAL_PLUG_INTENSITY_INPUT=SmartDefault
      *  62 * ! ENERGYPLUSVERSION=7.1
      *  63 * ! EXTERIOR_LIGHTING_INPUT=SmartDefault
      *  64 * ! FAN_STATIC_PRESSURE_INPUT=SmartDefault
      *  65 * ! FLOOR_TO_FLOOR_HEIGHT=3.80
      *  66 * ! GAS_APPLIANCE_INTENSITY_INPUT=SmartDefault
      *  67 * ! GEOCHG=false
      *  68 * ! GEOMETRY_CONFIGURATION=1
      *  69 * ! HEATING_COP_INPUT=SmartDefault
      *  70 * ! HEATING_EFFICIENCY_INPUT=SmartDefault
      *  71 * ! HVAC_TYPE=1
      *  72 * ! IDF_UPLOAD=0
      *  73 * ! INSTALLATION_TYPE=1
      *  74 * ! INSTALLATION_TYPE_CAPACITY=0.00
      *  75 * ! INSTALLATION_TYPE_PERCENT=5
      *  76 * ! INVERTER_EFFICIENCY=89
      *  77 * ! LENGTH_1=40.00
      *  78 * ! LIGHT_INTENSITY_INPUT=SmartDefault
      *  79 * ! MODEL=Detailed
      *  80 * ! MOTORIZED_DAMPER=0
      *  81 * ! NUMBER_OF_FLOORS=1
      *  82 * ! NUMBER_OF_STEPS=3
      *  83 * ! ORIENTATION=0
      *  84 * ! OUTSIDE_AIR_VENTILATION_PER_AREA_INPUT=SmartDefault
      *  85 * ! OUTSIDE_AIR_VENTILATION_PER_PERSON_INPUT=SmartDefault
      *  86 * ! PEOPLE_DENSITY_INPUT=SmartDefault
      *  87 * ! ROOF_TYPE=Insulation Entirely above Deck
      *  88 * ! ROOF_TYPE_INPUT=CUSTOM
      *  89 * ! STATE=FL
      *  90 * ! STORAGE_SET_POINT=60
      *  91 * ! STORAGE_SET_POINT_TEMP=80
      *  92 * ! STORAGE_SET_POINT_TYPE=Natural Gas
      *  93 * ! TARGETED_STANDARD=ASHRAE 90.1-2007
      *  94 * ! TOTAL_FAN_EFFICIENCY_INPUT=SmartDefault
      *  95 * ! VERSION=8.9
      *  96 * ! WALL_TYPE=Mass
      *  97 * ! WALL_TYPE_INPUT=CUSTOM
      *  98 * ! WATER_USE=0.0000
      *  99 * ! WATER_USE_PER=per hour
      * 100 * ! WATER_USE_TEMP=40
      * 101 * ! WEBINTERFACEVERSION=6.0
      * 102 * ! WIDTH_1=40.00
      * 103 * ! ZONE_LAYOUT=1
      * 104 * ! ZONE_TERMINAL_FAN_STATIC_PRESSURE_INPUT=SmartDefault
      * 105 * !
      * 106 * ! End WebInterface Parameters
      * 107 * ! Number of Zones: 5
      * 108 * Version,
      * 109 *     8.9 ;
      * 110 *
      * 111 *
      * 112 * !-   ===========  ALL OBJECTS IN CLASS: SIMULATIONCONTROL ===========
      * 113 *
      * 114 * SimulationControl,
      * 115 *     Yes,                     !- Do Zone Sizing Calculation
      * 116 *     Yes,                     !- Do System Sizing Calculation
      * 117 *     Yes,                     !- Do Plant Sizing Calculation
      * 118 *     No,                      !- Run Simulation for Sizing Periods
      * 119 *     Yes;                     !- Run Simulation for Weather File Run Periods
      * 120 *
      * 121 *
      * 122 * !-   ===========  ALL OBJECTS IN CLASS: BUILDING ===========
      * 123 *
      * 124 * Building,
      * 125 *     Coolroof_IDF,     !- Name
      * 126 *     0.0000,                  !- North Axis {deg}
      * 127 *     City,                    !- Terrain
      * 128 *     0.0400,                  !- Loads Convergence Tolerance Value
      * 129 *     0.2000,                  !- Temperature Convergence Tolerance Value {deltaC}
      * 130 *     FullInteriorAndExterior, !- Solar Distribution
      * 131 *     25,                      !- Maximum Number of Warmup Days
      * 132 *     6;                       !- Minimum Number of Warmup Days
      * 133 *
      * 134 *
      * 135 * !-   ===========  ALL OBJECTS IN CLASS: SHADOWCALCULATION ===========
      * 136 *
      * 137 * ShadowCalculation,
      * 138 *     AverageOverDaysInFrequency,  !- Calculation Method
      * 139 *     30,                          !- Calculation Frequency
      * 140 *     15000;                       !- Maximum Figures in Shadow Overlap Calculations
      * 141 *
      * 142 *
      * 143 * !-   ===========  ALL OBJECTS IN CLASS: SURFACECONVECTIONALGORITHM:INSIDE ===========
      * 144 *
      * 145 * SurfaceConvectionAlgorithm:Inside,TARP ;
      * 146 *
      * 147 *
      * 148 *
      * 149 * !-   ===========  ALL OBJECTS IN CLASS: SURFACECONVECTIONALGORITHM:OUTSIDE ===========
      * 150 *
      * 151 * SurfaceConvectionAlgorithm:Outside,DOE-2 ;
      * 152 *
      * 153 *
      * 154 * !-   ===========  ALL OBJECTS IN CLASS: HEATBALANCEALGORITHM ===========
      * 155 *
      * 156 * HeatBalanceAlgorithm,ConductionTransferFunction,200.0000 ;
      * 157 *
      * 158 *
      * 159 * !-   ===========  ALL OBJECTS IN CLASS: ZONEAIRHEATBALANCEALGORITHM ===========
      * 160 *
      * 161 * ZoneAirHeatBalanceAlgorithm,
      * 162 *     AnalyticalSolution;      !- Algorithm
      * 163 *
      * 164 *
      * 165 * !-   ===========  ALL OBJECTS IN CLASS: TIMESTEP ===========
      * 166 *
      * 167 * Timestep,4 ;
      * 168 *
      * 169 *
      * 170 * !-   ===========  ALL OBJECTS IN CLASS: CONVERGENCELIMITS ===========
      * 171 *
      * 172 * ConvergenceLimits,
      * 173 *     5,                       !- Minimum System Timestep {minutes}
      * 174 *     25;                      !- Maximum HVAC Iterations
      * 175 *
      * 176 *
      * 177 * !-   ===========  ALL OBJECTS IN CLASS: SIZINGPERIOD:WEATHERFILEDAYS ===========
      * 178 *
      * 179 * SizingPeriod:WeatherFileDays,
      * 180 *     SummerDesignPeriod,      !- Name
      * 181 *     1,                       !- Begin Month
      * 182 *     1,                       !- Begin Day of Month
      * 183 *     12,                      !- End Month
      * 184 *     31,                      !- End Day of Month
      * 185 *     SummerDesignDay,         !- Day of Week for Start Day
      * 186 *     No,                      !- Use Weather File Daylight Saving Period
      * 187 *     No;                      !- Use Weather File Rain and Snow Indicators
      * 188 *
      * 189 * SizingPeriod:WeatherFileDays,
      * 190 *     WinterDesignPeriod,      !- Name
      * 191 *     1,                       !- Begin Month
      * 192 *     1,                       !- Begin Day of Month
      * 193 *     12,                      !- End Month
      * 194 *     31,                      !- End Day of Month
      * 195 *     WinterDesignDay,         !- Day of Week for Start Day
      * 196 *     No,                      !- Use Weather File Daylight Saving Period
      * 197 *     No;                      !- Use Weather File Rain and Snow Indicators
      * 198 *
      * 199 *
      * 200 * !-   ===========  ALL OBJECTS IN CLASS: RUNPERIOD ===========
      * 201 *
      * 202 * RunPeriod,
      * 203 *     FullYear,                !- Name
      * 204 *     1,                       !- Begin Month
      * 205 *     1,                       !- Begin Day of Month
      * 206 *     12,                      !- End Month
      * 207 *     31,                      !- End Day of Month
      * 208 *     UseWeatherFile,          !- Day of Week for Start Day
      * 209 *     No,                      !- Use Weather File Holidays and Special Days
      * 210 *     No,                      !- Use Weather File Daylight Saving Period
      * 211 *     No,                      !- Apply Weekend Holiday Rule
      * 212 *     Yes,                     !- Use Weather File Rain Indicators
      * 213 *     Yes,                     !- Use Weather File Snow Indicators
      * 214 *     1.0000;                  !- Number of Times Runperiod to be Repeated
      * 215 *
      * 216 *
      * 217 * !-   ===========  ALL OBJECTS IN CLASS: SITE:GROUNDTEMPERATURE:BUILDINGSURFACE ===========
      * 218 *
      * 219 * Site:GroundTemperature:BuildingSurface,25,25,25,25,25,25,25,25,25,25,25,25 ;
      * 220 *
      * 221 *
      * 222 * !-   ===========  ALL OBJECTS IN CLASS: SCHEDULETYPELIMITS ===========
      * 223 *
      * 224 * !***** Schedule Set *****
      * 225 * ScheduleTypeLimits,
      * 226 *     Any Number;              !- Name
      * 227 *
      * 228 * ScheduleTypeLimits,
      * 229 *     Fraction,                !- Name
      * 230 *     0.0,                     !- Lower Limit Value
      * 231 *     1.0,                     !- Upper Limit Value
      * 232 *     CONTINUOUS;              !- Numeric Type
      * 233 *
      * 234 * ScheduleTypeLimits,
      * 235 *     Temperature,             !- Name
      * 236 *     -60,                     !- Lower Limit Value
      * 237 *     200,                     !- Upper Limit Value
      * 238 *     CONTINUOUS;              !- Numeric Type
      * 239 *
      * 240 * ScheduleTypeLimits,
      * 241 *     On/Off,                  !- Name
      * 242 *     0,                       !- Lower Limit Value
      * 243 *     1,                       !- Upper Limit Value
      * 244 *     DISCRETE;                !- Numeric Type
      * 245 *
      * 246 * ScheduleTypeLimits,
      * 247 *     Control Type,            !- Name
      * 248 *     0,                       !- Lower Limit Value
      * 249 *     4,                       !- Upper Limit Value
      * 250 *     DISCRETE;                !- Numeric Type
      * 251 *
      * 252 * ScheduleTypeLimits,
      * 253 *     Humidity,                !- Name
      * 254 *     10,                      !- Lower Limit Value
      * 255 *     90,                      !- Upper Limit Value
      * 256 *     CONTINUOUS;              !- Numeric Type
      * 257 *
      * 258 * ScheduleTypeLimits,
      * 259 *     Number;                  !- Name
      * 260 *
      * 261 * !-   ===========  ALL OBJECTS IN CLASS: SCHEDULE:COMPACT ===========
      * 262 * ! Schedule set    Schedule_Office_ASHRAE_90.1-1989_TypTstatSetback[]
      * 263 * ! Hours: Weekly: 92, Yearly: 4797
      * 264 * ! Schedule Office Lighting,  ASHRAE 90.1-1989, Section 13 w/addenda
      * 265 *
      * 266 *   Schedule:Compact,
      * 267 *     BLDG_LIGHT_SCH,          !- Name
      * 268 *     Fraction,                !- Schedule Type Limits Name
      * 269 *     Through: 12/31,          !- Field 1
      * 270 *     For: Weekdays,           !- Field 2
      * 271 *     Until: 08:00,0,          !- Field 3
      * 272 *     Until: 09:00,.05,        !- Field 5
      * 273 *     Until: 11:00,.7,         !- Field 7
      * 274 *     Until: 18:00,0.9,        !- Field 9
      * 275 *     Until: 19:00,.9,         !- Field 11
      * 276 *     Until: 24:00,0.05,       !- Field 13
      * 277 *     For: SummerDesignDay,    !- Field 15
      * 278 *     Until: 24:00,1.0,        !- Field 16
      * 279 *     For: Saturday,           !- Field 18
      * 280 *     Until: 08:00,0.01,       !- Field 19
      * 281 *     Until: 12:00,0.1,        !- Field 21
      * 282 *     Until: 24:00,0.01,       !- Field 23
      * 283 *     For: WinterDesignDay,    !- Field 25
      * 284 *     Until: 24:00,0.0,        !- Field 26
      * 285 *     For: Sunday Holidays AllOtherDays, !- Field 28
      * 286 *     Until: 24:00,0.01;       !- Field 29
      * 287 *
      * 288 * ! Schedule Office Receptacle,  ASHRAE 90.1-1989, Section 13
      * 289 * ! MODIFIED for increased off-hours plug loads (to account for more IT equipment)
      * 290 * ! Hours: Weekly: 86.15, Yearly: 4492
      * 291 *
      * 292 *   Schedule:Compact,
      * 293 *     BLDG_EQUIP_SCH,          !- Name
      * 294 *     Fraction,                !- Schedule Type Limits Name
      * 295 *     Through: 12/31,          !- Field 1
      * 296 *     For: Weekdays,           !- Field 2
      * 297 *     Until: 08:00,.01,        !- Field 3
      * 298 *     Until: 09:00,.05,        !- Field 5
      * 299 *     Until: 11:00,.7,         !- Field 7
      * 300 *     Until: 18:00,0.9,        !- Field 9
      * 301 *     Until: 19:00,.3,         !- Field 11
      * 302 *     Until: 24:00,0.05,       !- Field 13
      * 303 *     For: SummerDesignDay,    !- Field 15
      * 304 *     Until: 24:00,1.0,        !- Field 16
      * 305 *     For: Saturday,           !- Field 18
      * 306 *     Until: 08:00,0.01,       !- Field 19
      * 307 *     Until: 12:00,0.1,        !- Field 21
      * 308 *     Until: 24:00,0.01,       !- Field 23
      * 309 *     For: WinterDesignDay,    !- Field 25
      * 310 *     Until: 24:00,0.0,        !- Field 26
      * 311 *     For: Sunday Holidays AllOtherDays, !- Field 28
      * 312 *     Until: 24:00,0.30;       !- Field 29
      * 313 *
      * 314 * ! Schedule Office Occupancy,
      * 315 *
      * 316 *   Schedule:Compact,
      * 317 *     BLDG_OCC_SCH,            !- Name
      * 318 *     Fraction,                !- Schedule Type Limits Name
      * 319 *     Through: 12/31,          !- Field 1
      * 320 *     For: Weekdays,           !- Field 2
      * 321 *     Until: 08:00,.01,        !- Field 3
      * 322 *     Until: 09:00,.1,         !- Field 5
      * 323 *     Until: 11:00,.7,         !- Field 7
      * 324 *     Until: 18:00,0.9,        !- Field 9
      * 325 *     Until: 19:00,.3,         !- Field 11
      * 326 *     Until: 24:00,0.05,       !- Field 13
      * 327 *     For: SummerDesignDay,    !- Field 15
      * 328 *     Until: 06:00,0.0,        !- Field 16
      * 329 *     Until: 20:00,1.0,        !- Field 18
      * 330 *     Until: 24:00,0.05,       !- Field 20
      * 331 *     For: Saturday,           !- Field 22
      * 332 *     Until: 08:00,0.01,       !- Field 23
      * 333 *     Until: 12:00,0.1,        !- Field 25
      * 334 *     Until: 24:00,0.01,       !- Field 27
      * 335 *     For: WinterDesignDay,    !- Field 29
      * 336 *     Until: 24:00,0.0,        !- Field 30
      * 337 *     For: Sunday Holidays AllOtherDays, !- Field 32
      * 338 *     Until: 06:00,0.0,        !- Field 33
      * 339 *     Until: 18:00,0.0,        !- Field 35
      * 340 *     Until: 24:00,0.0;        !- Field 37
      * 341 *
      * 342 *   Schedule:Compact,
      * 343 *     INFIL_SCH,               !- Name
      * 344 *     fraction,                !- Schedule Type Limits Name
      * 345 *     Through: 12/31,          !- Field 1
      * 346 *     For: Weekdays SummerDesignDay, !- Field 2
      * 347 *     Until: 08:00,1.0,        !- Field 3
      * 348 *     Until: 19:00,0.0,        !- Field 5
      * 349 *     Until: 24:00,1.0,        !- Field 7
      * 350 *     For: Saturday WinterDesignDay, !- Field 9
      * 351 *     Until: 06:00,1.0,        !- Field 10
      * 352 *     Until: 18:00,0.0,        !- Field 12
      * 353 *     Until: 24:00,1.0,        !- Field 14
      * 354 *     For: Sunday Holidays AllOtherDays, !- Field 16
      * 355 *     Until: 24:00,1.0;        !- Field 17
      * 356 *
      * 357 *   Schedule:Compact,
      * 358 *     INFIL_HALF_ON_SCH,       !- Name
      * 359 *     fraction,                !- Schedule Type Limits Name
      * 360 *     Through: 12/31,          !- Field 1
      * 361 *     For: Weekdays SummerDesignDay, !- Field 2
      * 362 *     Until: 08:00,1.0,        !- Field 3
      * 363 *     Until: 19:00,0.5,        !- Field 5
      * 364 *     Until: 24:00,1.0,        !- Field 7
      * 365 *     For: Saturday WinterDesignDay, !- Field 9
      * 366 *     Until: 06:00,1.0,        !- Field 10
      * 367 *     Until: 18:00,0.5,        !- Field 12
      * 368 *     Until: 24:00,1.0,        !- Field 14
      * 369 *     For: Sunday Holidays AllOtherDays, !- Field 16
      * 370 *     Until: 24:00,1.0;        !- Field 17
      * 371 *
      * 372 *   Schedule:Compact,
      * 373 *     INFIL_QUARTER_ON_SCH,    !- Name
      * 374 *     fraction,                !- Schedule Type Limits Name
      * 375 *     Through: 12/31,          !- Field 1
      * 376 *     For: Weekdays SummerDesignDay, !- Field 2
      * 377 *     Until: 08:00,1.0,        !- Field 3
      * 378 *     Until: 19:00,0.25,       !- Field 5
      * 379 *     Until: 24:00,1.0,        !- Field 7
      * 380 *     For: Saturday WinterDesignDay, !- Field 9
      * 381 *     Until: 06:00,1.0,        !- Field 10
      * 382 *     Until: 18:00,0.25,       !- Field 12
      * 383 *     Until: 24:00,1.0,        !- Field 14
      * 384 *     For: Sunday Holidays AllOtherDays, !- Field 16
      * 385 *     Until: 24:00,1.0;        !- Field 17
      * 386 *
      * 387 *   Schedule:Compact,
      * 388 *     ALWAYS_ON,               !- Name
      * 389 *     Fraction,                !- Schedule Type Limits Name
      * 390 *     Through: 12/31,          !- Field 1
      * 391 *     For: AllDays,            !- Field 2
      * 392 *     Until: 24:00,1.0;        !- Field 3
      * 393 *
      * 394 *   Schedule:Compact,
      * 395 *     ALWAYS_OFF,              !- Name
      * 396 *     Fraction,                !- Schedule Type Limits Name
      * 397 *     Through: 12/31,          !- Field 1
      * 398 *     For: AllDays,            !- Field 2
      * 399 *     Until: 24:00,0.0;        !- Field 3
      * 400 *
      * 401 * ! Schedule Office HVAC Systems, ASHRAE 90.1-1989, Section 13
      * 402 * ! Equivalent Full-Load Hours: Weekdays 16, Saturday 12, Sunday/Holidays 0
      * 403 *
      * 404 *   Schedule:Compact,
      * 405 *     HVACOperationSchd,       !- Name
      * 406 *     on/off,                  !- Schedule Type Limits Name
      * 407 *     Through: 12/31,          !- Field 1
      * 408 *     For: Weekdays SummerDesignDay, !- Field 2
      * 409 *     Until: 08:00,0.0,        !- Field 3
      * 410 *     Until: 19:00,1.0,        !- Field 5
      * 411 *     Until: 24:00,0.0,        !- Field 7
      * 412 *     For: Saturday WinterDesignDay, !- Field 9
      * 413 *     Until: 08:00,0.0,        !- Field 10
      * 414 *     Until: 18:00,1.0,        !- Field 12
      * 415 *     Until: 24:00,0.0,        !- Field 14
      * 416 *     For: Sunday Holidays AllOtherDays, !- Field 16
      * 417 *     Until: 24:00,0.0;        !- Field 17
      * 418 *
      * 419 *   Schedule:Compact,
      * 420 *     PlantOnSched,            !- Name
      * 421 *     On/Off,                  !- Schedule Type Limits Name
      * 422 *     Through: 12/31,          !- Field 1
      * 423 *     For: AllDays,            !- Field 2
      * 424 *     Until: 24:00,1.0;        !- Field 3
      * 425 *
      * 426 *   Schedule:Compact,
      * 427 *     FAN_SCH,                 !- Name
      * 428 *     Fraction,                !- Schedule Type Limits Name
      * 429 *     Through: 12/31,          !- Field 1
      * 430 *     For: AllDays,            !- Field 2
      * 431 *     Until: 24:00,1.0;        !- Field 3
      * 432 *
      * 433 *   Schedule:Compact,
      * 434 *     ReheatCoilAvailSched,    !- Name
      * 435 *     Fraction,                !- Schedule Type Limits Name
      * 436 *     Through: 12/31,          !- Field 1
      * 437 *     For: AllDays,            !- Field 2
      * 438 *     Until: 24:00,1.0;        !- Field 3
      * 439 *
      * 440 *   Schedule:Compact,
      * 441 *     CoolingCoilAvailSched,   !- Name
      * 442 *     Fraction,                !- Schedule Type Limits Name
      * 443 *     Through: 12/31,          !- Field 1
      * 444 *     For: AllDays,            !- Field 2
      * 445 *     Until: 24:00,1.0;        !- Field 3
      * 446 *
      * 447 *   Schedule:Compact,
      * 448 *     HTGSETP_SCH,             !- Name
      * 449 *     Temperature,             !- Schedule Type Limits Name
      * 450 *     Through: 12/31,          !- Field 1
      * 451 *     For: Weekdays,           !- Field 2
      * 452 *     Until: 08:00,4,          !- Field 3
      * 453 *     Until: 19:00,21.0,       !- Field 5
      * 454 *     Until: 24:00,4,          !- Field 7
      * 455 *     For SummerDesignDay,     !- Field 9
      * 456 *     Until: 24:00,4,          !- Field 10
      * 457 *     For: Saturday,           !- Field 12
      * 458 *     Until: 08:00,4,          !- Field 13
      * 459 *     Until: 14:00,21.0,       !- Field 15
      * 460 *     Until: 24:00,4,          !- Field 17
      * 461 *     For: WinterDesignDay,    !- Field 19
      * 462 *     Until: 24:00,21.0,       !- Field 20
      * 463 *     For: Sunday Holidays AllOtherDays, !- Field 22
      * 464 *     Until: 24:00,4;          !- Field 23
      * 465 *
      * 466 *   Schedule:Compact,
      * 467 *     CLGSETP_SCH,             !- Name
      * 468 *     Temperature,             !- Schedule Type Limits Name
      * 469 *     Through: 12/31,          !- Field 1
      * 470 *     For: Weekdays SummerDesignDay, !- Field 2
      * 471 *     Until: 8:00,40,          !- Field 3
      * 472 *     Until: 9:00,24,          !- Field 5
      * 473 *     Until: 19:00,24.0,       !- Field 7
      * 474 *     Until: 24:00,40,         !- Field 9
      * 475 *     For: Saturday,           !- Field 11
      * 476 *     Until: 08:00,40,         !- Field 12
      * 477 *     Until: 14:00,24.0,       !- Field 14
      * 478 *     Until: 24:00,40,         !- Field 16
      * 479 *     For WinterDesignDay,     !- Field 18
      * 480 *     Until: 24:00,40,         !- Field 19
      * 481 *     For: Sunday Holidays AllOtherDays, !- Field 21
      * 482 *     Until: 24:00,40;         !- Field 22
      * 483 *
      * 484 *   Schedule:Compact,
      * 485 *     Humidity Setpoint Schedule,  !- Name
      * 486 *     Humidity,                !- Schedule Type Limits Name
      * 487 *     Through: 12/31,          !- Field 1
      * 488 *     For: Weekdays SummerDesignDay, !- Field 2
      * 489 *     Until: 24:00,55,         !- Field 3
      * 490 *     For: Saturday WinterDesignDay, !- Field 5
      * 491 *     Until: 24:00,55,         !- Field 6
      * 492 *     For: Sunday Holidays AllOtherDays, !- Field 8
      * 493 *     Until: 24:00,80;         !- Field 9
      * 494 *
      * 495 *   Schedule:Compact,
      * 496 *     MinOA_MotorizedDamper_Sched,  !- Name
      * 497 *     fraction,                !- Schedule Type Limits Name
      * 498 *     Through: 12/31,          !- Field 1
      * 499 *     For: Weekdays SummerDesignDay, !- Field 2
      * 500 *     Until: 07:00,0.0,        !- Field 3
      * 501 *     Until: 22:00,1.0,        !- Field 5
      * 502 *     Until: 24:00,0.0,        !- Field 7
      * 503 *     For: Saturday WinterDesignDay, !- Field 9
      * 504 *     Until: 07:00,0.0,        !- Field 10
      * 505 *     Until: 18:00,1.0,        !- Field 12
      * 506 *     Until: 24:00,0.0,        !- Field 14
      * 507 *     For: Sunday Holidays AllOtherDays, !- Field 16
      * 508 *     Until: 24:00,0.0;        !- Field 17
      * 509 *
      * 510 *   Schedule:Compact,
      * 511 *     MinOA_Sched,             !- Name
      * 512 *     fraction,                !- Schedule Type Limits Name
      * 513 *     Through: 12/31,          !- Field 1
      * 514 *     For: AllDays,            !- Field 2
      * 515 *     Until: 24:00,1.0;        !- Field 3
      * 516 *
      * 517 *   Schedule:Compact,
      * 518 *     Dual Zone Control Type Sched,  !- Name
      * 519 *     Control Type,            !- Schedule Type Limits Name
      * 520 *     Through: 12/31,          !- Field 1
      * 521 *     For: AllDays,            !- Field 2
      * 522 *     Until: 24:00,4;          !- Field 3
      * 523 *
      * 524 *   Schedule:Compact,
      * 525 *     Seasonal-Reset-Supply-Air-Temp-Sch,  !- Name
      * 526 *     Temperature,             !- Schedule Type Limits Name
      * 527 *     Through: 3/31,           !- Field 1
      * 528 *     For: AllDays,            !- Field 2
      * 529 *     Until: 24:00,13.0,       !- Field 3
      * 530 *     Through: 9/30,           !- Field 5
      * 531 *     For: AllDays,            !- Field 6
      * 532 *     Until: 24:00,13.0,       !- Field 7
      * 533 *     Through: 12/31,          !- Field 9
      * 534 *     For: AllDays,            !- Field 10
      * 535 *     Until: 24:00,13.0;       !- Field 11
      * 536 *
      * 537 *   Schedule:Compact,
      * 538 *     CW-Loop-Temp-Schedule,   !- Name
      * 539 *     Temperature,             !- Schedule Type Limits Name
      * 540 *     Through: 12/31,          !- Field 1
      * 541 *     For: AllDays,            !- Field 2
      * 542 *     Until: 24:00,6.7;        !- Field 3
      * 543 *
      * 544 *   Schedule:Compact,
      * 545 *     HW-Loop-Temp-Schedule,   !- Name
      * 546 *     Temperature,             !- Schedule Type Limits Name
      * 547 *     Through: 12/31,          !- Field 1
      * 548 *     For: AllDays,            !- Field 2
      * 549 *     Until: 24:00,60.;        !- Field 3
      * 550 *
      * 551 *   Schedule:Compact,
      * 552 *     Heating-Supply-Air-Temp-Sch,  !- Name
      * 553 *     Temperature,             !- Schedule Type Limits Name
      * 554 *     Through: 12/31,          !- Field 1
      * 555 *     For: AllDays,            !- Field 2
      * 556 *     Until: 24:00,16.0;       !- Field 3
      * 557 *
      * 558 *   Schedule:Compact,
      * 559 *     ACTIVITY_SCH,            !- Name
      * 560 *     Any Number,              !- Schedule Type Limits Name
      * 561 *     Through: 12/31,          !- Field 1
      * 562 *     For: AllDays,            !- Field 2
      * 563 *     Until: 24:00,120.;       !- Field 3
      * 564 *
      * 565 *   Schedule:Compact,
      * 566 *     WORK_EFF_SCH,            !- Name
      * 567 *     Fraction,                !- Schedule Type Limits Name
      * 568 *     Through: 12/31,          !- Field 1
      * 569 *     For: AllDays,            !- Field 2
      * 570 *     Until: 24:00,0.0;        !- Field 3
      * 571 *
      * 572 *   Schedule:Compact,
      * 573 *     AIR_VELO_SCH,            !- Name
      * 574 *     Any Number,              !- Schedule Type Limits Name
      * 575 *     Through: 12/31,          !- Field 1
      * 576 *     For: AllDays,            !- Field 2
      * 577 *     Until: 24:00,0.2;        !- Field 3
      * 578 *
      * 579 *   Schedule:Compact,
      * 580 *     CLOTHING_SCH,            !- Name
      * 581 *     Any Number,              !- Schedule Type Limits Name